Version 4
SHEET 1 1216 680
WIRE 224 0 64 0
WIRE 480 0 224 0
WIRE 736 0 480 0
WIRE 992 0 736 0
WIRE 64 112 64 80
WIRE 224 160 224 0
WIRE 480 160 480 0
WIRE 736 160 736 0
WIRE 992 160 992 0
WIRE 160 192 16 192
WIRE 416 192 304 192
WIRE 672 192 560 192
WIRE 928 192 816 192
WIRE 1168 192 1072 192
WIRE 1168 208 1168 192
WIRE 16 224 16 192
WIRE 224 288 224 224
WIRE 480 288 480 224
WIRE 736 288 736 224
WIRE 992 288 992 224
WIRE 1168 288 1168 272
WIRE 16 336 16 304
FLAG 224 288 0
FLAG 16 336 0
FLAG 64 112 0
FLAG 1168 288 0
FLAG 480 288 0
FLAG 736 288 0
FLAG 992 288 0
SYMBOL inverter 224 192 R0
SYMATTR InstName X1
SYMBOL voltage 16 208 R0
WINDOW 123 0 0 Left 0
WINDOW 39 0 0 Left 0
SYMATTR InstName V1
SYMATTR Value PULSE(0 1 500p 1p 1p 1000p)
SYMBOL voltage 64 -16 R0
WINDOW 123 0 0 Left 0
WINDOW 39 0 0 Left 0
SYMATTR InstName V2
SYMATTR Value 1
SYMBOL inverter 480 192 R0
SYMATTR InstName X2
SYMBOL inverter 736 192 R0
SYMATTR InstName X3
SYMBOL inverter 992 192 R0
SYMATTR InstName X4
SYMBOL cap 1152 208 R0
SYMATTR InstName C1
SYMATTR Value 50f
TEXT 328 96 Left 2 !.include cmos.txt
TEXT 328 64 Left 2 !.tran 2n
